SUMMARY OF JOB INFORMATION
  STEP   INC   ATT  ITRS   TOT TIME  STEP TIME   INC TIME
     1     1     1     4  0.500E-01  0.500E-01  0.500E-01
     2     1     1     3  0.100E+00  0.500E-01  0.500E-01
     2     2     1     3  0.150E+00  0.100E+00  0.500E-01
     2     3     1     3  0.200E+00  0.150E+00  0.500E-01
     2     4     1     3  0.250E+00  0.200E+00  0.500E-01
     2     5     1     4  0.300E+00  0.250E+00  0.500E-01
     2     6     1     4  0.350E+00  0.300E+00  0.500E-01
     2     7     1     4  0.400E+00  0.350E+00  0.500E-01
     2     8     1     4  0.450E+00  0.400E+00  0.500E-01
     2     9     1     4  0.500E+00  0.450E+00  0.500E-01
     2    10     1     4  0.550E+00  0.500E+00  0.500E-01
     2    11     1     5  0.600E+00  0.550E+00  0.500E-01
     2    12     1     5  0.650E+00  0.600E+00  0.500E-01
     2    13     1     5  0.700E+00  0.650E+00  0.500E-01
     2    14     1     5  0.750E+00  0.700E+00  0.500E-01
     2    15     1    13  0.800E+00  0.750E+00  0.500E-01
     2    16     1     5  0.838E+00  0.788E+00  0.375E-01
     2    17     1     5  0.875E+00  0.825E+00  0.375E-01
     2    18     1     5  0.913E+00  0.863E+00  0.375E-01
     2    19     1     5  0.950E+00  0.900E+00  0.375E-01
     2    20     1     6  0.988E+00  0.938E+00  0.375E-01
     2    21     1     6  0.103E+01  0.975E+00  0.375E-01
     2    22     1     6  0.105E+01  0.100E+01  0.250E-01
